<?xml version="1.0" encoding="UTF-8"?>
<!DOCTYPE network SYSTEM "http://www.matsim.org/files/dtd/network_v2.dtd">
<network>

<!-- ====================================================================== -->

	<nodes>
		<node id="1269918934" x="-374163.5992862384" y="6064849.405860181" >
		</node>
		<node id="1269918935" x="-374174.9650062484" y="6064858.047769945" >
		</node>
		<node id="1493566988" x="-373100.2309823847" y="6064417.288312823" >
		</node>
		<node id="1493566991" x="-373121.1367827557" y="6064463.558388126" >
		</node>
		<node id="1493566992" x="-372995.66858468263" y="6064462.680992614" >
		</node>
		<node id="1493566993" x="-373470.0120669018" y="6064447.550072782" >
		</node>
		<node id="1493566996" x="-373017.5317326744" y="6064510.143251595" >
		</node>
		<node id="1493567001" x="-373168.1024759214" y="6064570.799968676" >
		</node>
		<node id="1493567007" x="-373572.0697760611" y="6064578.315868917" >
		</node>
		<node id="1493567027" x="-373431.862877407" y="6064682.463082062" >
		</node>
		<node id="1493567031" x="-373449.7519195774" y="6064683.919926905" >
		</node>
		<node id="1493567033" x="-373566.00286381284" y="6064693.356314247" >
		</node>
		<node id="1493567036" x="-373627.69612561044" y="6064702.594050812" >
		</node>
		<node id="1802156930" x="-373859.2184025623" y="6064039.952293388" >
		</node>
		<node id="1845411014" x="-373951.5913160226" y="6064427.502472657" >
		</node>
		<node id="1845422249" x="-373902.84451100416" y="6064586.460860723" >
		</node>
		<node id="1845422264" x="-374671.4721990845" y="6064816.079955992" >
		</node>
		<node id="1845422315" x="-374084.18396150647" y="6064801.031192018" >
		</node>
		<node id="1845422323" x="-374130.8713559452" y="6064720.423903691" >
		</node>
		<node id="1845422329" x="-374377.27704881603" y="6064640.992772456" >
		</node>
		<node id="1845463665" x="-374734.13394045207" y="6064808.199631868" >
		</node>
		<node id="1845463765" x="-374704.96823386423" y="6064836.707897384" >
		</node>
		<node id="1845523433" x="-373734.9524549898" y="6064571.230394504" >
		</node>
		<node id="1845523457" x="-374165.3024744475" y="6064884.4039926985" >
		</node>
		<node id="1850654309" x="-374463.6832375698" y="6064663.375126342" >
		</node>
		<node id="1850654310" x="-373721.95033846516" y="6064746.283050209" >
		</node>
		<node id="1850654311" x="-374456.72576939524" y="6064676.768145484" >
		</node>
		<node id="1850654312" x="-374170.4899627185" y="6064871.3086483255" >
		</node>
		<node id="1963461808" x="-373741.70954808104" y="6064044.10730305" >
		</node>
		<node id="1963461816" x="-373607.55842972605" y="6064043.0147505095" >
		</node>
		<node id="1963461820" x="-373292.9584167951" y="6063939.537410214" >
		</node>
		<node id="1963500407" x="-374655.7872828318" y="6064689.399652331" >
		</node>
		<node id="1963500413" x="-374623.80519312684" y="6064642.16817569" >
		</node>
		<node id="255947493" x="-374996.53624414996" y="6063838.279471998" >
		</node>
		<node id="260479882" x="-374036.02714978927" y="6065609.397280077" >
		</node>
		<node id="260479888" x="-373633.239836252" y="6064765.503631283" >
		</node>
		<node id="260479889" x="-373627.5736741706" y="6064706.004400508" >
		</node>
		<node id="260796828" x="-373554.40337287216" y="6063412.121902977" >
		</node>
		<node id="260796852" x="-374359.7553609652" y="6063337.900303996" >
		</node>
		<node id="260796865" x="-373852.9177193834" y="6063966.884044526" >
		</node>
		<node id="260796866" x="-373861.6785633089" y="6063950.2145059025" >
		</node>
		<node id="260796868" x="-373857.9938881636" y="6063927.171860116" >
		</node>
		<node id="260796872" x="-373817.0839752971" y="6063904.956953906" >
		</node>
		<node id="260796877" x="-373794.9759244255" y="6063968.655288365" >
		</node>
		<node id="260796881" x="-373839.9378667569" y="6063976.832811351" >
		</node>
		<node id="260796924" x="-373739.48315826507" y="6064035.267563787" >
		</node>
		<node id="260796928" x="-373287.4814978481" y="6063954.700545398" >
		</node>
		<node id="260796936" x="-373371.2716785682" y="6063975.938911698" >
		</node>
		<node id="260796937" x="-373333.25607246236" y="6064157.468658254" >
		</node>
		<node id="260796939" x="-373713.76835589187" y="6064269.838248993" >
		</node>
		<node id="260834583" x="-373856.20164436183" y="6064038.396234512" >
		</node>
		<node id="260834587" x="-373875.18161754205" y="6064027.669368182" >
		</node>
		<node id="260834593" x="-373856.5356028342" y="6064018.548231545" >
		</node>
		<node id="260834596" x="-374581.581710269" y="6064437.551098764" >
		</node>
		<node id="260834597" x="-374517.08319730335" y="6064560.254542605" >
		</node>
		<node id="260834598" x="-373797.9815506769" y="6064137.372070941" >
		</node>
		<node id="260834600" x="-374364.0522933098" y="6064631.837876709" >
		</node>
		<node id="260834604" x="-373946.63759868225" y="6064436.011522668" >
		</node>
		<node id="260834606" x="-374308.93801341805" y="6063815.1212517945" >
		</node>
		<node id="260834608" x="-374079.06326493" y="6064688.174577459" >
		</node>
		<node id="260834611" x="-374347.02041121846" y="6064116.5637099" >
		</node>
		<node id="260834612" x="-374197.930217199" y="6064374.892229375" >
		</node>
		<node id="260834615" x="-374536.0965663308" y="6064228.452695979" >
		</node>
		<node id="260834617" x="-374385.78185791266" y="6064481.089762414" >
		</node>
		<node id="260834618" x="-374003.9782683899" y="6063896.663624312" >
		</node>
		<node id="260834619" x="-374110.18819455575" y="6063979.729709003" >
		</node>
		<node id="260834621" x="-374024.0380406308" y="6064109.313075614" >
		</node>
		<node id="260834623" x="-374434.02772522246" y="6064510.176361044" >
		</node>
		<node id="260834626" x="-374037.6301504567" y="6064280.399873957" >
		</node>
		<node id="260834628" x="-374111.50176454714" y="6064157.154131404" >
		</node>
		<node id="260834629" x="-374267.5160308939" y="6064248.930242772" >
		</node>
		<node id="260834631" x="-374453.59769170394" y="6064363.386885435" >
		</node>
		<node id="260834632" x="-374191.6740618164" y="6064024.2923945105" >
		</node>
		<node id="260834636" x="-374156.3189915405" y="6064550.768636616" >
		</node>
		<node id="260834638" x="-374260.45837517764" y="6063903.268490945" >
		</node>
		<node id="260834640" x="-374769.04373276484" y="6063849.899989075" >
		</node>
		<node id="260834646" x="-373964.838335427" y="6064404.888968128" >
		</node>
		<node id="260834648" x="-373725.70180530485" y="6064261.362471553" >
		</node>
		<node id="260834651" x="-373984.5307533483" y="6064085.773387179" >
		</node>
		<node id="260834661" x="-373952.73790677777" y="6064229.7273680465" >
		</node>
		<node id="260834664" x="-373909.1451941831" y="6064203.7207843745" >
		</node>
		<node id="260834665" x="-373832.96926663327" y="6064328.639184528" >
		</node>
		<node id="260834667" x="-374699.88093313493" y="6064453.758050901" >
		</node>
		<node id="260834673" x="-374512.18513970845" y="6063438.192308547" >
		</node>
		<node id="260834678" x="-374217.97885749093" y="6064218.58640948" >
		</node>
		<node id="260834679" x="-374414.2128558613" y="6063882.510355718" >
		</node>
		<node id="260834681" x="-374295.5685425738" y="6064086.766621678" >
		</node>
		<node id="260834687" x="-374961.6153198881" y="6064168.95717321" >
		</node>
		<node id="260834768" x="-374771.7599283402" y="6063623.137202241" >
		</node>
		<node id="260834791" x="-374677.6838266708" y="6063976.965240935" >
		</node>
		<node id="260834794" x="-374513.59889724146" y="6063963.854721804" >
		</node>
		<node id="260834796" x="-374573.82274176064" y="6063968.7546104565" >
		</node>
		<node id="260834801" x="-374635.894489827" y="6064009.95682492" >
		</node>
		<node id="260834809" x="-374693.62477775244" y="6064208.753242561" >
		</node>
		<node id="260834813" x="-374739.6887830426" y="6063981.914798165" >
		</node>
		<node id="260834821" x="-374666.8190443694" y="6063857.166958572" >
		</node>
		<node id="260834823" x="-374626.8998749709" y="6063972.528850918" >
		</node>
		<node id="260834824" x="-374615.13340479403" y="6063863.026888324" >
		</node>
		<node id="260834826" x="-374411.3074171516" y="6064154.406160452" >
		</node>
		<node id="260834828" x="-374559.76309007354" y="6063869.267552351" >
		</node>
		<node id="260834842" x="-374603.35580266814" y="6064219.414117645" >
		</node>
		<node id="260834850" x="-374698.31132831477" y="6064376.845656205" >
		</node>
		<node id="260834852" x="-374825.02630468475" y="6064372.425614779" >
		</node>
		<node id="260834854" x="-374908.9612007429" y="6064603.164739948" >
		</node>
		<node id="260834857" x="-374704.45616420667" y="6064583.629978545" >
		</node>
		<node id="260834863" x="-374442.7885691479" y="6064173.112245069" >
		</node>
		<node id="260834866" x="-374365.48831474106" y="6064308.757404393" >
		</node>
		<node id="260834867" x="-374452.19506611995" y="6064685.211221406" >
		</node>
		<node id="260834874" x="-374706.87179715687" y="6064687.264048956" >
		</node>
		<node id="263742542" x="-373923.583332139" y="6064992.428926403" >
		</node>
		<node id="263742546" x="-373843.2217917353" y="6064921.653816863" >
		</node>
		<node id="263742548" x="-373725.69067335577" y="6064970.343718712" >
		</node>
		<node id="263742561" x="-373684.59151735494" y="6064879.652582264" >
		</node>
		<node id="263742564" x="-373592.7529374505" y="6064920.130709782" >
		</node>
		<node id="264377957" x="-374209.1289579728" y="6064769.129223735" >
		</node>
		<node id="264377984" x="-373887.60487271467" y="6064823.596070174" >
		</node>
		<node id="264377991" x="-374112.5481677606" y="6065030.656005128" >
		</node>
		<node id="264377992" x="-373944.3332852229" y="6064936.769013661" >
		</node>
		<node id="264377995" x="-374011.6259174074" y="6064760.123188679" >
		</node>
		<node id="264378004" x="-374053.1369555242" y="6064673.0763717545" >
		</node>
		<node id="264378005" x="-373870.72883791034" y="6064569.061710743" >
		</node>
		<node id="264378006" x="-373648.679849625" y="6064439.934959065" >
		</node>
		<node id="264378008" x="-373887.1929905987" y="6065014.298966706" >
		</node>
		<node id="264378009" x="-373975.73651357566" y="6064628.626215765" >
		</node>
		<node id="264378011" x="-373708.18011745403" y="6064738.187572821" >
		</node>
		<node id="264378017" x="-373861.9457300867" y="6064883.956995787" >
		</node>
		<node id="264378018" x="-373637.0692267353" y="6064572.637556014" >
		</node>
		<node id="264378019" x="-373928.3366743959" y="6064723.966701508" >
		</node>
		<node id="264378021" x="-373821.94863704476" y="6064673.490247655" >
		</node>
		<node id="264378029" x="-373912.5738344995" y="6064492.7608104" >
		</node>
		<node id="264378030" x="-373926.8895210156" y="6064468.922090919" >
		</node>
		<node id="264378032" x="-373799.91850981675" y="6064665.56038886" >
		</node>
		<node id="264378036" x="-373674.07182547497" y="6064711.600025742" >
		</node>
		<node id="264378037" x="-373772.4893872853" y="6064513.487306213" >
		</node>
		<node id="264378038" x="-373708.8035066025" y="6064612.915582334" >
		</node>
		<node id="264378039" x="-373696.7698696477" y="6064468.508224844" >
		</node>
		<node id="264378040" x="-373678.6804523938" y="6064515.208998199" >
		</node>
		<node id="2874503509" x="-372970.332268578" y="6064407.090719621" >
		</node>
		<node id="2925877196" x="-374349.30246077967" y="6064657.117332197" >
		</node>
		<node id="2930144726" x="-374448.32114784035" y="6064682.893513467" >
		</node>
		<node id="2930144728" x="-374463.983800195" y="6064692.280234468" >
		</node>
		<node id="2930148142" x="-374552.3158161394" y="6064745.190408647" >
		</node>
		<node id="2930148143" x="-374570.23825415707" y="6064755.934723373" >
		</node>
		<node id="3361722484" x="-373304.9586579026" y="6063956.63732332" >
		</node>
		<node id="3361722485" x="-373300.5726699654" y="6063971.7508275295" >
		</node>
		<node id="3361722486" x="-372937.8269772664" y="6063995.90269267" >
		</node>
		<node id="3361722487" x="-373281.84873161395" y="6064016.594885934" >
		</node>
		<node id="3361722488" x="-373317.53776036226" y="6064026.79201705" >
		</node>
		<node id="3361724493" x="-373211.86216775223" y="6064081.154848262" >
		</node>
		<node id="3361724495" x="-373269.4366083905" y="6064104.512430702" >
		</node>
		<node id="3363379747" x="-373912.56270255044" y="6064444.901336814" >
		</node>
		<node id="3363379748" x="-373881.6492799572" y="6064498.074867274" >
		</node>
		<node id="3964572340" x="-373887.63826856186" y="6064534.313180487" >
		</node>
		<node id="3964572349" x="-373705.3859982351" y="6064610.995211817" >
		</node>
		<node id="3964572352" x="-373680.5394878901" y="6064543.58385613" >
		</node>
		<node id="3980204342" x="-374034.6801839507" y="6064662.961250929" >
		</node>
		<node id="4496980323" x="-373742.04350655334" y="6064962.579142649" >
		</node>
		<node id="4496980329" x="-373635.55528166046" y="6064771.132405605" >
		</node>
		<node id="4616178686" x="-373727.7278200373" y="6064582.78568054" >
		</node>
		<node id="4783226689" x="-374098.3883285317" y="6064179.022051922" >
		</node>
		<node id="4783226690" x="-374129.43533451395" y="6064208.670471845" >
		</node>
		<node id="4783226691" x="-374245.775334342" y="6064235.620659532" >
		</node>
		<node id="4783226694" x="-374220.0494000197" y="6064260.617530569" >
		</node>
		<node id="4783226695" x="-374099.5683151341" y="6064267.785520881" >
		</node>
		<node id="4783226697" x="-374065.2707800207" y="6064296.689302103" >
		</node>
		<node id="4783226698" x="-374241.13331157586" y="6064296.689302103" >
		</node>
		<node id="4783226700" x="-374179.0838274078" y="6064316.273076086" >
		</node>
		<node id="4783226703" x="-374215.79699547135" y="6064342.544869836" >
		</node>
		<node id="4783226706" x="-374424.6434921486" y="6064411.146579109" >
		</node>
		<node id="4793292046" x="-373874.9812424587" y="6064734.131559402" >
		</node>
		<node id="4793292049" x="-373804.00393512886" y="6064806.047443759" >
		</node>
		<node id="496774156" x="-374068.28753822116" y="6064904.783765437" >
		</node>
		<node id="496774165" x="-374101.49414232484" y="6064812.073571819" >
		</node>
		<node id="4984511698" x="-373146.90724487434" y="6064522.658630968" >
		</node>
		<node id="5321056402" x="-373762.4372372666" y="6064246.000146189" >
		</node>
		<node id="5321056404" x="-373818.6313162191" y="6064149.704814603" >
		</node>
		<node id="5321056405" x="-373785.2799967774" y="6064298.808254365" >
		</node>
		<node id="5321056407" x="-373856.62465842685" y="6064172.367311719" >
		</node>
		<node id="5324754919" x="-373242.45276382216" y="6063914.87254207" >
		</node>
		<node id="5324757321" x="-373286.0454764168" y="6063921.5932978075" >
		</node>
		<node id="5324757322" x="-373298.691370571" y="6063921.79194091" >
		</node>
		<node id="5329573892" x="-373573.81749206653" y="6064230.108114286" >
		</node>
		<node id="5338882637" x="-374395.1326951393" y="6064043.263057895" >
		</node>
		<node id="5338882640" x="-374375.1731104401" y="6064100.357391918" >
		</node>
		<node id="5338882641" x="-374366.95773201954" y="6064114.246154898" >
		</node>
		<node id="5338882642" x="-374361.06893095654" y="6064124.559279439" >
		</node>
		<node id="5338882646" x="-374620.6659834866" y="6064342.263445031" >
		</node>
		<node id="5338882648" x="-374568.21223942464" y="6064390.221675535" >
		</node>
		<node id="5338882649" x="-374564.4273767377" y="6064305.711407156" >
		</node>
		<node id="5338882655" x="-374565.01737003896" y="6064395.601887188" >
		</node>
		<node id="5338882656" x="-374557.23613763246" y="6064409.110371856" >
		</node>
		<node id="5338882657" x="-374550.7796071665" y="6064419.705276611" >
		</node>
		<node id="5347963716" x="-373763.0383625169" y="6064861.6734013315" >
		</node>
		<node id="5347963717" x="-373734.4849131285" y="6064874.983951565" >
		</node>
		<node id="5347963718" x="-373772.4448594889" y="6064883.923884908" >
		</node>
		<node id="5347963719" x="-373744.5593270452" y="6064897.118581246" >
		</node>
		<node id="5347966122" x="-373768.99395527435" y="6064950.294902279" >
		</node>
		<node id="5347966124" x="-373793.4619793507" y="6064887.350861812" >
		</node>
		<node id="5347966128" x="-374279.4717442051" y="6063894.759966953" >
		</node>
		<node id="5348736382" x="-373554.32544922864" y="6064790.3033763245" >
		</node>
		<node id="5348736384" x="-373570.4222475973" y="6064841.1943983985" >
		</node>
		<node id="5353058687" x="-374324.56726992544" y="6064447.2851991495" >
		</node>
		<node id="5353058689" x="-374254.202219795" y="6064473.060752764" >
		</node>
		<node id="5362008445" x="-373379.70969597035" y="6063944.520053224" >
		</node>
		<node id="5430241849" x="-374625.98705514637" y="6064712.642997715" >
		</node>
		<node id="5430241850" x="-374582.6169815333" y="6064686.800507209" >
		</node>
		<node id="5430241851" x="-374570.2493861062" y="6064679.450062822" >
		</node>
		<node id="5430241852" x="-374526.3227150392" y="6064653.276571901" >
		</node>
		<node id="5430241853" x="-374514.1332307973" y="6064646.025486018" >
		</node>
		<node id="5430241855" x="-374639.3342620925" y="6064720.572899833" >
		</node>
		<node id="5430241858" x="-374640.43632505136" y="6064743.40245002" >
		</node>
		<node id="5430241859" x="-374500.3296139389" y="6064669.334934518" >
		</node>
		<node id="5430241860" x="-374512.6081537735" y="6064676.437044636" >
		</node>
		<node id="5430241861" x="-374556.8019916184" y="6064701.964957327" >
		</node>
		<node id="5430241862" x="-374569.2697745872" y="6064709.149869868" >
		</node>
		<node id="5430241863" x="-374612.99607057084" y="6064734.412997005" >
		</node>
		<node id="5430241864" x="-374626.4323331096" y="6064742.160812305" >
		</node>
		<node id="5430241867" x="-374469.7501498181" y="6064651.687292282" >
		</node>
		<node id="5430955203" x="-374200.4905654873" y="6064804.011143196" >
		</node>
		<node id="5430955204" x="-374192.1082078305" y="6064799.14389014" >
		</node>
		<node id="5441291091" x="-374487.8173031738" y="6064616.805989416" >
		</node>
		<node id="5441291093" x="-374482.373780074" y="6064627.301819853" >
		</node>
		<node id="5859353159" x="-373701.37849656655" y="6064267.636532569" >
		</node>
		<node id="6184437014" x="-373889.08542194223" y="6064531.912739313" >
		</node>
		<node id="6227196649" x="-373268.65737195493" y="6063967.099242359" >
		</node>
		<node id="6227196651" x="-373171.2082897145" y="6063950.429703315" >
		</node>
		<node id="6227196652" x="-372994.5331258765" y="6063865.0298595745" >
		</node>
		<node id="6227196654" x="-373240.3933532425" y="6064001.315765627" >
		</node>
		<node id="7023358204" x="-373847.18476560764" y="6064784.50903698" >
		</node>
		<node id="7023358206" x="-373854.8435465741" y="6064689.234101663" >
		</node>
		<node id="7023389190" x="-373793.5176390961" y="6064794.806408448" >
		</node>
		<node id="7325795443" x="-373774.08125600364" y="6064822.735193325" >
		</node>
		<node id="7325795445" x="-373761.68026472925" y="6064836.459567139" >
		</node>
		<node id="836221409" x="-374042.9289582185" y="6064993.42226541" >
		</node>
	</nodes>

<!-- ====================================================================== -->

	<links capperiod="01:00:00" effectivecellsize="7.5" effectivelanewidth="3.75">
		<link id="136113204_0" from="1493566991" to="4984511698" length="43.35486571752567" freespeed="8.333333333333334" capacity="600.0" permlanes="1.0" oneway="1" modes="car" >
		</link>
		<link id="136113204_0_r" from="4984511698" to="1493566991" length="43.35486571752567" freespeed="8.333333333333334" capacity="600.0" permlanes="1.0" oneway="1" modes="car" >
		</link>
		<link id="136113205_0" from="1493567007" to="1493567033" length="77.463411114817" freespeed="8.333333333333334" capacity="600.0" permlanes="1.0" oneway="1" modes="car" >
		</link>
		<link id="136113205_0_r" from="1493567033" to="1493567007" length="77.463411114817" freespeed="8.333333333333334" capacity="600.0" permlanes="1.0" oneway="1" modes="car" >
		</link>
		<link id="136113207_0" from="1493566993" to="1493567031" length="159.52476169307147" freespeed="4.166666666666667" capacity="300.0" permlanes="1.0" oneway="1" modes="car" >
		</link>
		<link id="136113207_0_r" from="1493567031" to="1493566993" length="159.52476169307147" freespeed="4.166666666666667" capacity="300.0" permlanes="1.0" oneway="1" modes="car" >
		</link>
		<link id="136113208_0" from="1493566991" to="1493566996" length="76.38626548006454" freespeed="8.333333333333334" capacity="600.0" permlanes="1.0" oneway="1" modes="car" >
		</link>
		<link id="136113208_0_r" from="1493566996" to="1493566991" length="76.38626548006454" freespeed="8.333333333333334" capacity="600.0" permlanes="1.0" oneway="1" modes="car" >
		</link>
		<link id="173786162_0" from="3980204342" to="1845422249" length="123.89386082597099" freespeed="4.166666666666667" capacity="300.0" permlanes="1.0" oneway="1" modes="car" >
		</link>
		<link id="173786164_0" from="1845422315" to="1845422323" length="62.636527423870184" freespeed="8.333333333333334" capacity="600.0" permlanes="1.0" oneway="1" modes="car" >
		</link>
		<link id="173786164_0_r" from="1845422323" to="1845422315" length="62.636527423870184" freespeed="8.333333333333334" capacity="600.0" permlanes="1.0" oneway="1" modes="car" >
		</link>
		<link id="173796525_0" from="264378032" to="264378038" length="70.77285697627516" freespeed="8.333333333333334" capacity="600.0" permlanes="1.0" oneway="1" modes="car" >
		</link>
		<link id="173796525_1" from="264378038" to="3964572349" length="2.6359753871744473" freespeed="8.333333333333334" capacity="600.0" permlanes="1.0" oneway="1" modes="car" >
		</link>
		<link id="173796525_2" from="3964572349" to="264378018" length="52.68366745154252" freespeed="8.333333333333334" capacity="600.0" permlanes="1.0" oneway="1" modes="car" >
		</link>
		<link id="173796529_0" from="264378038" to="4616178686" length="23.924978200745777" freespeed="8.333333333333334" capacity="600.0" permlanes="1.0" oneway="1" modes="car" >
		</link>
		<link id="173796529_0_r" from="4616178686" to="264378038" length="23.924978200745777" freespeed="8.333333333333334" capacity="600.0" permlanes="1.0" oneway="1" modes="car" >
		</link>
		<link id="173796532_0" from="264378021" to="264378032" length="15.762927722015746" freespeed="13.88888888888889" capacity="600.0" permlanes="1.0" oneway="1" modes="car" >
		</link>
		<link id="173796532_0_r" from="264378032" to="264378021" length="15.762927722015746" freespeed="13.88888888888889" capacity="600.0" permlanes="1.0" oneway="1" modes="car" >
		</link>
		<link id="174373237_0" from="1850654311" to="260834867" length="6.4430620866409765" freespeed="8.333333333333334" capacity="600.0" permlanes="1.0" oneway="1" modes="car" >
		</link>
		<link id="174373237_0_r" from="260834867" to="1850654311" length="6.4430620866409765" freespeed="8.333333333333334" capacity="600.0" permlanes="1.0" oneway="1" modes="car" >
		</link>
		<link id="174373238_0" from="264378011" to="1850654310" length="10.740890229470878" freespeed="5.555555555555555" capacity="600.0" permlanes="1.0" oneway="1" modes="car" >
		</link>
		<link id="174373238_0_r" from="1850654310" to="264378011" length="10.740890229470878" freespeed="5.555555555555555" capacity="600.0" permlanes="1.0" oneway="1" modes="car" >
		</link>
		<link id="174373239_0" from="1850654310" to="7023389190" length="58.19578375728577" freespeed="5.555555555555555" capacity="600.0" permlanes="1.0" oneway="1" modes="car" >
		</link>
		<link id="174373239_0_r" from="7023389190" to="1850654310" length="58.19578375728577" freespeed="5.555555555555555" capacity="600.0" permlanes="1.0" oneway="1" modes="car" >
		</link>
		<link id="174373240_0" from="1850654309" to="1850654311" length="10.14841910166547" freespeed="8.333333333333334" capacity="600.0" permlanes="1.0" oneway="1" modes="car" >
		</link>
		<link id="174373240_0_r" from="1850654311" to="1850654309" length="10.14841910166547" freespeed="8.333333333333334" capacity="600.0" permlanes="1.0" oneway="1" modes="car" >
		</link>
		<link id="174373241_0" from="1850654312" to="1269918935" length="9.41072445032068" freespeed="8.333333333333334" capacity="600.0" permlanes="1.0" oneway="1" modes="car" >
		</link>
		<link id="174373242_0" from="1845523457" to="1850654312" length="9.471079935260871" freespeed="8.333333333333334" capacity="600.0" permlanes="1.0" oneway="1" modes="car" >
		</link>
		<link id="185695667_0" from="260796924" to="1963461808" length="6.130103126724742" freespeed="4.166666666666667" capacity="300.0" permlanes="1.0" oneway="1" modes="car" >
		</link>
		<link id="185695667_0_r" from="1963461808" to="260796924" length="6.130103126724742" freespeed="4.166666666666667" capacity="300.0" permlanes="1.0" oneway="1" modes="car" >
		</link>
		<link id="185695669_0" from="260796928" to="1963461820" length="10.841647419324298" freespeed="8.333333333333334" capacity="300.0" permlanes="1.0" oneway="1" modes="car" >
		</link>
		<link id="185695669_0_r" from="1963461820" to="260796928" length="10.841647419324298" freespeed="8.333333333333334" capacity="300.0" permlanes="1.0" oneway="1" modes="car" >
		</link>
		<link id="185695670_0" from="1963461816" to="5362008445" length="187.8316693388758" freespeed="8.333333333333334" capacity="300.0" permlanes="1.0" oneway="1" modes="car" >
		</link>
		<link id="185695670_0_r" from="5362008445" to="1963461816" length="187.8316693388758" freespeed="8.333333333333334" capacity="300.0" permlanes="1.0" oneway="1" modes="car" >
		</link>
		<link id="185695670_1" from="5362008445" to="5324757322" length="56.58632029202335" freespeed="8.333333333333334" capacity="300.0" permlanes="1.0" oneway="1" modes="car" >
		</link>
		<link id="185695670_1_r" from="5324757322" to="5362008445" length="56.58632029202335" freespeed="8.333333333333334" capacity="300.0" permlanes="1.0" oneway="1" modes="car" >
		</link>
		<link id="185695670_2" from="5324757322" to="1963461820" length="12.540752318912759" freespeed="8.333333333333334" capacity="300.0" permlanes="1.0" oneway="1" modes="car" >
		</link>
		<link id="185695670_2_r" from="1963461820" to="5324757322" length="12.540752318912759" freespeed="8.333333333333334" capacity="300.0" permlanes="1.0" oneway="1" modes="car" >
		</link>
		<link id="185695676_0" from="260796936" to="5362008445" length="21.877151161190547" freespeed="8.333333333333334" capacity="300.0" permlanes="1.0" oneway="1" modes="car" >
		</link>
		<link id="185695676_0_r" from="5362008445" to="260796936" length="21.877151161190547" freespeed="8.333333333333334" capacity="300.0" permlanes="1.0" oneway="1" modes="car" >
		</link>
		<link id="185697502_0" from="260834874" to="1963500407" length="34.38022898172734" freespeed="4.166666666666667" capacity="300.0" permlanes="1.0" oneway="1" modes="car" >
		</link>
		<link id="185697502_0_r" from="1963500407" to="260834874" length="34.38022898172734" freespeed="4.166666666666667" capacity="300.0" permlanes="1.0" oneway="1" modes="car" >
		</link>
		<link id="185697502_1" from="1963500407" to="1963500413" length="42.495978948841426" freespeed="4.166666666666667" capacity="300.0" permlanes="1.0" oneway="1" modes="car" >
		</link>
		<link id="185697502_1_r" from="1963500413" to="1963500407" length="42.495978948841426" freespeed="4.166666666666667" capacity="300.0" permlanes="1.0" oneway="1" modes="car" >
		</link>
		<link id="185697502_2" from="1963500413" to="1963500407" length="50.591458052977764" freespeed="4.166666666666667" capacity="300.0" permlanes="1.0" oneway="1" modes="car" >
		</link>
		<link id="185697502_2_r" from="1963500407" to="1963500413" length="50.591458052977764" freespeed="4.166666666666667" capacity="300.0" permlanes="1.0" oneway="1" modes="car" >
		</link>
		<link id="24020072_1" from="263742564" to="5348736384" length="56.02638065906819" freespeed="13.88888888888889" capacity="600.0" permlanes="1.0" oneway="1" modes="car" >
		</link>
		<link id="24020072_2" from="5348736384" to="260479888" length="69.73039554432403" freespeed="13.88888888888889" capacity="600.0" permlanes="1.0" oneway="1" modes="car" >
		</link>
		<link id="24020076_0" from="260479882" to="263742548" length="479.52330321521015" freespeed="13.88888888888889" capacity="600.0" permlanes="1.0" oneway="1" modes="car" >
		</link>
		<link id="24020076_0_r" from="263742548" to="260479882" length="479.52330321521015" freespeed="13.88888888888889" capacity="600.0" permlanes="1.0" oneway="1" modes="car" >
		</link>
		<link id="24020076_1" from="263742548" to="263742561" length="66.95042724229135" freespeed="13.88888888888889" capacity="600.0" permlanes="1.0" oneway="1" modes="car" >
		</link>
		<link id="24020076_1_r" from="263742561" to="263742548" length="66.95042724229135" freespeed="13.88888888888889" capacity="600.0" permlanes="1.0" oneway="1" modes="car" >
		</link>
		<link id="24020076_2" from="263742561" to="4496980329" length="80.07366800799987" freespeed="13.88888888888889" capacity="600.0" permlanes="1.0" oneway="1" modes="car" >
		</link>
		<link id="24020076_2_r" from="4496980329" to="263742561" length="80.07366800799987" freespeed="13.88888888888889" capacity="600.0" permlanes="1.0" oneway="1" modes="car" >
		</link>
		<link id="24020076_3" from="4496980329" to="260479888" length="4.09258306279411" freespeed="13.88888888888889" capacity="600.0" permlanes="1.0" oneway="1" modes="car" >
		</link>
		<link id="24020076_3_r" from="260479888" to="4496980329" length="4.09258306279411" freespeed="13.88888888888889" capacity="600.0" permlanes="1.0" oneway="1" modes="car" >
		</link>
		<link id="24048201_0" from="260796828" to="260796872" length="375.5832438999865" freespeed="13.88888888888889" capacity="600.0" permlanes="1.0" oneway="1" modes="car" >
		</link>
		<link id="24048201_0_r" from="260796872" to="260796828" length="375.5832438999865" freespeed="13.88888888888889" capacity="600.0" permlanes="1.0" oneway="1" modes="car" >
		</link>