<?xml version="1.0" encoding="UTF-8"?>
<!DOCTYPE network SYSTEM "http://www.matsim.org/files/dtd/network_v2.dtd">
<network>

<!-- ====================================================================== -->

	<nodes>
		<node id="1269918935" x="223829.27518828306" y="6757696.380264979" >
		</node>
		<node id="1282895802" x="224388.23677149555" y="6758628.015219045" >
		</node>
		<node id="1493566988" x="224526.6302988989" y="6757343.353812955" >
		</node>
		<node id="1493566991" x="224515.0974926469" y="6757375.438196792" >
		</node>
		<node id="1493566992" x="224599.2408952911" y="6757368.064833034" >
		</node>
		<node id="1493566996" x="224587.12966150156" y="6757400.998229584" >
		</node>
		<node id="1493567001" x="224489.3667496938" y="6757449.720111595" >
		</node>
		<node id="1493567007" x="224218.70934984245" y="6757476.607367375" >
		</node>
		<node id="1493567027" x="224318.4072291688" y="6757538.689312987" >
		</node>
		<node id="1493567033" x="224228.98805544112" y="6757553.236166005" >
		</node>
		<node id="1493567036" x="224188.0909237683" y="6757562.755129156" >
		</node>
		<node id="1592750149" x="222984.39711268607" y="6758654.584683082" >
		</node>
		<node id="1592750182" x="223156.42694880278" y="6758669.619812505" >
		</node>
		<node id="1802156930" x="223996.96852079593" y="6757131.998354108" >
		</node>
		<node id="1845411012" x="223300.2800329363" y="6757849.6889095185" >
		</node>
		<node id="1845411014" x="223955.90793493524" y="6757396.266372852" >
		</node>
		<node id="1845422315" x="223887.1081610397" y="6757653.322175311" >
		</node>
		<node id="1845422323" x="223851.4287142636" y="6757601.929256211" >
		</node>
		<node id="1845463643" x="223566.5276369005" y="6757817.251091714" >
		</node>
		<node id="1845463665" x="223451.39324584662" y="6757693.33801969" >
		</node>
		<node id="1845463672" x="223452.23803229333" y="6757705.375139895" >
		</node>
		<node id="1845463689" x="223446.5544905978" y="6757708.353537293" >
		</node>
		<node id="1845463693" x="223375.8801064943" y="6757641.58820798" >
		</node>
		<node id="1845463695" x="223439.76818089007" y="6757693.497056999" >
		</node>
		<node id="1845463727" x="223551.19532434328" y="6757802.505241128" >
		</node>
		<node id="1845463729" x="223475.41892646765" y="6757721.415016586" >
		</node>
		<node id="1845463730" x="223458.10822264838" y="6757718.477584887" >
		</node>
		<node id="1845463759" x="223454.30384020257" y="6757699.958101418" >
		</node>
		<node id="1845463760" x="223463.8448411661" y="6757709.64286243" >
		</node>
		<node id="1845463761" x="223459.56723091216" y="6757713.087282944" >
		</node>
		<node id="1845463765" x="223472.50353167584" y="6757710.827069317" >
		</node>
		<node id="1845463771" x="223380.97311120713" y="6757623.486723287" >
		</node>
		<node id="1845463807" x="223316.00993899937" y="6757582.756355086" >
		</node>
		<node id="1845477937" x="223798.60158488166" y="6758065.171406449" >
		</node>
		<node id="1845477952" x="223752.91251552745" y="6757992.773163336" >
		</node>
		<node id="1845477954" x="223710.93882730074" y="6758061.805951511" >
		</node>
		<node id="1845477958" x="223776.89267533273" y="6758025.904369977" >
		</node>
		<node id="1845523433" x="224109.03263903572" y="6757480.684853491" >
		</node>
		<node id="1845523457" x="223837.18190727395" y="6757713.487465981" >
		</node>
		<node id="1845523463" x="223952.48407331022" y="6757970.173293129" >
		</node>
		<node id="1850654309" x="223625.03453402675" y="6757581.798901634" >
		</node>
		<node id="1850654310" x="224127.20529218606" y="6757597.083266929" >
		</node>
		<node id="1850654311" x="223630.42653353378" y="6757590.381099726" >
		</node>
		<node id="1850654312" x="223832.99400691479" y="6757705.008533527" >
		</node>
		<node id="1911708342" x="223873.6786388103" y="6758840.440899668" >
		</node>
		<node id="1911708343" x="223837.88393144333" y="6758905.864636959" >
		</node>
		<node id="2269428916" x="223324.4987345704" y="6757572.160812571" >
		</node>
		<node id="2269429061" x="223466.98221000697" y="6757726.978953105" >
		</node>
		<node id="2286646054" x="223258.76696075452" y="6757807.565520573" >
		</node>
		<node id="2319297941" x="223391.83956462675" y="6758200.84785077" >
		</node>
		<node id="2319297942" x="223463.49502568948" y="6758271.546629744" >
		</node>
		<node id="2351043739" x="223879.55571257346" y="6758096.344623611" >
		</node>
		<node id="2364149051" x="222929.0483556125" y="6758023.233151593" >
		</node>
		<node id="2380148057" x="224107.9097001024" y="6758143.545216248" >
		</node>
		<node id="2380148087" x="224111.99599821103" y="6758393.068726492" >
		</node>
		<node id="2532684923" x="224404.23393827362" y="6758094.137509179" >
		</node>
		<node id="2532684930" x="224414.98777377122" y="6758265.519446269" >
		</node>
		<node id="255947482" x="223251.72428244288" y="6757211.838131911" >
		</node>
		<node id="255947483" x="223280.2810145226" y="6757365.060725164" >
		</node>
		<node id="255947486" x="223303.17300175264" y="6757578.621759993" >
		</node>
		<node id="255947489" x="223312.12196001195" y="6757559.673517544" >
		</node>
		<node id="255947492" x="223321.9509160007" y="6757578.776117734" >
		</node>
		<node id="255947493" x="223222.88165478705" y="6757058.716838259" >
		</node>
		<node id="255947515" x="223477.71414148627" y="6758057.984532852" >
		</node>
		<node id="255947516" x="223464.66790167312" y="6758078.133118199" >
		</node>
		<node id="255947517" x="223461.74277800892" y="6758069.28484949" >
		</node>
		<node id="255947520" x="223486.55038978608" y="6758072.909498828" >
		</node>
		<node id="255947521" x="223483.99572420976" y="6758078.042788913" >
		</node>
		<node id="255947528" x="223164.87679075974" y="6758384.881219732" >
		</node>
		<node id="255947530" x="223156.21939891047" y="6758554.199686438" >
		</node>
		<node id="255947533" x="223135.61652492965" y="6758853.710116018" >
		</node>
		<node id="2559991664" x="223650.71299045434" y="6757958.73615642" >
		</node>
		<node id="256600591" x="223592.09353301814" y="6759162.041390238" >
		</node>
		<node id="256613335" x="223148.24700001394" y="6758471.688796469" >
		</node>
		<node id="256613341" x="223531.02444262983" y="6758527.794684788" >
		</node>
		<node id="256613343" x="223524.668131407" y="6758535.275013361" >
		</node>
		<node id="256613346" x="223163.79131263675" y="6758396.37221287" >
		</node>
		<node id="257950795" x="222882.76826297096" y="6759001.940335843" >
		</node>
		<node id="257950799" x="223064.9542428336" y="6758954.842353819" >
		</node>
		<node id="257950803" x="223403.9295170288" y="6758871.288408324" >
		</node>
		<node id="257950807" x="223664.30072544178" y="6758808.460682022" >
		</node>
		<node id="257950809" x="223675.9432552972" y="6758814.966288119" >
		</node>
		<node id="257950819" x="223677.379404552" y="6758802.689122931" >
		</node>
		<node id="257950825" x="223666.9928071458" y="6758814.15102444" >
		</node>
		<node id="260479813" x="223643.2992280876" y="6759271.334572893" >
		</node>
		<node id="260479851" x="224372.8385699172" y="6758807.63764858" >
		</node>
		<node id="260479852" x="224365.32480313047" y="6758751.105738534" >
		</node>
		<node id="260479854" x="224361.6749236746" y="6758746.205775539" >
		</node>
		<node id="260479855" x="224364.92234862357" y="6758738.754223395" >
		</node>
		<node id="260479856" x="224368.03280352108" y="6758737.711923287" >
		</node>
		<node id="260479857" x="224375.0906376149" y="6758741.623624629" >
		</node>
		<node id="260479859" x="223876.66932971415" y="6758945.7147988165" >
		</node>
		<node id="260479862" x="223878.30343152804" y="6758935.88515698" >
		</node>
		<node id="260479863" x="223888.33943328564" y="6758941.863204988" >
		</node>
		<node id="260479867" x="224361.74433724215" y="6758815.465749411" >
		</node>
		<node id="260479868" x="224361.3429656907" y="6758799.959626538" >
		</node>
		<node id="260479872" x="224210.4044782978" y="6758682.109866302" >
		</node>
		<node id="260479877" x="223871.06655891112" y="6758476.38682271" >
		</node>
		<node id="260479880" x="223926.2902405716" y="6758329.595719073" >
		</node>
		<node id="260479882" x="223963.06755247095" y="6758191.439469632" >
		</node>
		<node id="260479885" x="224064.91680202686" y="6757944.089155062" >
		</node>
		<node id="260479886" x="224121.80860108184" y="6757788.293751051" >
		</node>
		<node id="260479888" x="224187.76615254977" y="6757605.138566262" >
		</node>
		<node id="260479889" x="224188.35713115562" y="6757565.029861288" >
		</node>
		<node id="260479896" x="224063.4769816482" y="6758152.236039389" >
		</node>
		<node id="260479897" x="223983.86675819382" y="6758165.906642415" >
		</node>
		<node id="260479898" x="224390.05564874382" y="6758809.370045218" >
		</node>
		<node id="260796828" x="224167.62992268777" y="6756695.460394383" >
		</node>
		<node id="260796852" x="223623.1586007162" y="6756689.423470246" >
		</node>
		<node id="260796865" x="223997.25174881297" y="6757082.774241202" >
		</node>
		<node id="260796866" x="223990.4728619096" y="6757072.096628792" >
		</node>
		<node id="260796868" x="223991.7014147892" y="6757056.481369172" >
		</node>
		<node id="260796872" x="224017.95466469566" y="6757039.404035988" >
		</node>
		<node id="260796877" x="224036.2289442122" y="6757080.821657115" >
		</node>
		<node id="260796881" x="224006.49892027007" y="6757088.727142438" >
		</node>
		<node id="260796928" x="224376.0287966234" y="6757044.015843154" >
		</node>
		<node id="260796936" x="224320.94727969903" y="6757062.758604182" >
		</node>
		<node id="260796937" x="224356.25067166606" y="6757182.145179954" >
		</node>
		<node id="260796939" x="224106.97968467465" y="6757277.9147799555" >
		</node>
		<node id="260834583" x="223998.90887728438" y="6757130.793985051" >
		</node>
		<node id="260834587" x="223985.59342674783" y="6757124.645519782" >
		</node>
		<node id="260834593" x="223997.61322908668" y="6757117.533723309" >
		</node>
		<node id="260834596" x="223533.7225863415" y="6757437.122159376" >
		</node>
		<node id="260834597" x="223583.63171935867" y="6757515.710122358" >
		</node>
		<node id="260834598" x="224043.31989256467" y="6757193.855956909" >
		</node>
		<node id="260834600" x="223690.18205798086" y="6757555.302908215" >
		</node>
		<node id="260834604" x="223959.6913487382" y="6757401.690399776" >
		</node>
		<node id="260834606" x="223683.0434473587" y="6757005.946055588" >
		</node>
		<node id="260834608" x="223884.44975524786" y="6757577.549803498" >
		</node>
		<node id="260834611" x="223673.77367028792" y="6757209.675735616" >
		</node>
		<node id="260834612" x="223787.77079816745" y="6757374.414935606" >
		</node>
		<node id="260834615" x="223552.9441731975" y="6757294.775213409" >
		</node>
		<node id="260834617" x="223667.45756900293" y="6757455.636150626" >
		</node>
		<node id="260834618" x="223892.09148177796" y="6757043.977376293" >
		</node>
		<node id="260834619" x="223825.30557872966" y="6757105.302379737" >
		</node>
		<node id="260834621" x="223890.1135859096" y="6757187.326935354" >
		</node>
		<node id="260834623" x="223636.65597711218" y="6757477.708532167" >
		</node>
		<node id="260834626" x="223890.23160111904" y="6757302.518163268" >
		</node>
		<node id="260834628" x="223834.00626006786" y="6757224.069953545" >
		</node>
		<node id="260834629" x="223734.27376566787" y="6757293.919251947" >
		</node>
		<node id="260834631" x="223615.59338720416" y="6757380.5717693055" >
		</node>
		<node id="260834632" x="223773.03208489344" y="6757139.529387107" >
		</node>
		<node id="260834636" x="223825.19115597417" y="6757489.816182013" >
		</node>
		<node id="260834638" x="223720.3375807795" y="6757062.290677694" >
		</node>
		<node id="260834640" x="223376.16839558067" y="6757054.153753136" >
		</node>
		<node id="260834642" x="223367.29949764296" y="6756965.796930859" >
		</node>
		<node id="260834645" x="223208.85382408852" y="6757000.795246354" >
		</node>
		<node id="260834646" x="223945.79807327193" y="6757381.856004258" >
		</node>
		<node id="260834648" x="224098.5145738725" y="6757272.890696916" >
		</node>
		<node id="260834651" x="223915.35322500323" y="6757169.439150991" >
		</node>
		<node id="260834661" x="223944.46004432102" y="6757264.021194535" >
		</node>
		<node id="260834664" x="223972.30772382108" y="6757244.2622868875" >
		</node>
		<node id="260834665" x="224030.16749487736" y="6757323.705576826" >
		</node>
		<node id="260834667" x="223455.21924058243" y="6757454.376999734" >
		</node>
		<node id="260834672" x="223638.4480965017" y="6756893.276320102" >
		</node>
		<node id="260834673" x="223526.28450390132" y="6756764.785233382" >
		</node>
		<node id="260834675" x="223324.65443100082" y="6756535.468657271" >
		</node>
		<node id="260834678" x="223765.87527734193" y="6757270.935770964" >
		</node>
		<node id="260834679" x="223616.0394958892" y="6757056.735227281" >
		</node>
		<node id="260834681" x="223706.68980882328" y="6757186.95364638" >
		</node>
		<node id="260834687" x="223264.19567798142" y="6757278.045051916" >
		</node>
		<node id="260834690" x="223585.15033570374" y="6757056.432184047" >
		</node>
		<node id="260834693" x="223591.59195510775" y="6756994.872628575" >
		</node>
		<node id="260834699" x="223532.16053019825" y="6757055.908078303" >
		</node>
		<node id="260834701" x="223532.83233531873" y="6756987.245874873" >
		</node>
		<node id="260834710" x="223488.2049959149" y="6756796.497039952" >
		</node>
		<node id="260834712" x="223452.7659963944" y="6756976.2023784015" >
		</node>
		<node id="260834722" x="223443.77718535397" y="6756835.064470079" >
		</node>
		<node id="260834768" x="223362.0870879367" y="6756902.592643103" >
		</node>
		<node id="260834776" x="223254.42916239775" y="6756982.598465845" >
		</node>
		<node id="260834782" x="223234.22739417903" y="6757058.713811986" >
		</node>
		<node id="260834784" x="223234.48533813242" y="6757120.323334198" >
		</node>
		<node id="260834791" x="223444.34334696858" y="6757134.207581858" >
		</node>
		<node id="260834794" x="223553.74241759378" y="6757116.541735984" >
		</node>
		<node id="260834796" x="223513.59453756775" y="6757123.084212368" >
		</node>
		<node id="260834801" x="223474.16874945565" y="6757154.013380453" >
		</node>
		<node id="260834809" x="223446.17472721514" y="6757290.136067786" >
		</node>
		<node id="260834813" x="223403.00313870562" y="6757140.880597985" >
		</node>
		<node id="260834819" x="223425.33802503924" y="6757219.8451579185" >
		</node>
		<node id="260834821" x="223445.15893708705" y="6757053.472893154" >
		</node>
		<node id="260834823" x="223478.1816159641" y="6757128.486465002" >
		</node>
		<node id="260834824" x="223480.1592301018" y="6757054.591198121" >
		</node>
		<node id="260834826" x="223632.67972152465" y="6757238.475780186" >
		</node>
		<node id="260834828" x="223517.6526642121" y="6757055.764687458" >
		</node>
		<node id="260834842" x="223507.32334175037" y="6757292.374384503" >
		</node>
		<node id="260834850" x="223452.1153777194" y="6757402.840029096" >
		</node>
		<node id="260834852" x="223366.84961157385" y="6757406.753544636" >
		</node>
		<node id="260834854" x="223323.00353148766" y="6757565.660474123" >
		</node>
		<node id="260834857" x="223459.1687317129" y="6757541.504096185" >
		</node>
		<node id="260834858" x="223365.75112898427" y="6757559.508275687" >
		</node>
		<node id="260834862" x="223287.45720546436" y="6757403.895665814" >
		</node>
		<node id="260834863" x="223612.5657225923" y="6757252.696045861" >
		</node>
		<node id="260834866" x="223671.76447060087" y="6757339.251133697" >
		</node>
		<node id="260834867" x="223633.92275072564" y="6757595.78354831" >
		</node>
		<node id="260834874" x="223463.14915146254" y="6757610.961133902" >
		</node>
		<node id="261669135" x="223337.86302814615" y="6759143.4063833095" >
		</node>
		<node id="261669137" x="223386.3087125442" y="6759090.633603661" >
		</node>
		<node id="261669140" x="223170.51711552334" y="6759102.272402989" >
		</node>
		<node id="261669141" x="223193.85460455797" y="6758983.3763663145" >
		</node>
		<node id="261669142" x="223139.24747578957" y="6758935.8811359685" >
		</node>
		<node id="261669145" x="223156.44362760754" y="6758931.770678688" >
		</node>
		<node id="261669152" x="223146.917270398" y="6758955.994098261" >
		</node>
		<node id="261669155" x="223158.32458256523" y="6758972.784020502" >
		</node>
		<node id="261669157" x="223024.18235758942" y="6758965.408001078" >
		</node>
		<node id="261769690" x="222837.74105422356" y="6758775.990546682" >
		</node>
		<node id="261769775" x="223054.81954447465" y="6758825.544357871" >
		</node>
		<node id="261769777" x="223010.26353180775" y="6758817.031637906" >
		</node>
		<node id="261769778" x="222982.72519978654" y="6758915.189537509" >
		</node>
		<node id="261769782" x="223061.7730378111" y="6758770.440219572" >
		</node>
		<node id="261769785" x="222858.66707558604" y="6758645.829111158" >
		</node>
		<node id="261769794" x="223439.1059292864" y="6758695.023009113" >
		</node>
		<node id="261769795" x="223541.30106394843" y="6758706.6174453525" >
		</node>
		<node id="261769796" x="223703.47896201286" y="6758731.894419476" >
		</node>
		<node id="261769797" x="222862.88975524658" y="6758622.58054833" >
		</node>
		<node id="261769805" x="223051.50191056757" y="6758631.3664179575" >
		</node>
		<node id="261769806" x="223033.08683658805" y="6758679.338365498" >
		</node>
		<node id="261769807" x="223038.3732552373" y="6758664.587035751" >
		</node>
		<node id="261769812" x="223144.82142050704" y="6758766.298759432" >
		</node>
		<node id="261769822" x="223242.7261882922" y="6758865.024438555" >
		</node>
		<node id="261769823" x="223273.24680039304" y="6758902.997720833" >
		</node>
		<node id="261769824" x="223263.0888541593" y="6758783.209908559" >
		</node>
		<node id="261769825" x="223438.1543170776" y="6758862.848594594" >
		</node>
		<node id="261769828" x="223509.6248003324" y="6758782.143993727" >
		</node>
		<node id="261769829" x="223493.0441708829" y="6758849.316965939" >
		</node>
		<node id="261769830" x="223338.91822801536" y="6758779.409564497" >
		</node>
		<node id="261769831" x="223426.53300660057" y="6758817.918574392" >
		</node>
		<node id="261769833" x="223398.76554511744" y="6758838.365573175" >
		</node>
		<node id="261769834" x="223520.75262251712" y="6758757.624715538" >
		</node>
		<node id="261769835" x="223681.85806559754" y="6758789.55312473" >
		</node>
		<node id="261777358" x="223887.76604850823" y="6758231.749856075" >
		</node>
		<node id="262111387" x="223205.03745695011" y="6758989.026488417" >
		</node>
		<node id="262111395" x="223334.88872171758" y="6758995.315459542" >
		</node>
		<node id="262111397" x="223431.6055732296" y="6759037.112578471" >
		</node>
		<node id="262111399" x="223509.1069521843" y="6759078.881071289" >
		</node>
		<node id="262111402" x="223571.0787553537" y="6759086.045883119" >
		</node>
		<node id="262111404" x="223666.3197388918" y="6759091.381985533" >
		</node>
		<node id="262111406" x="223760.52658604935" y="6759095.0865183985" >
		</node>
		<node id="262111408" x="223355.8553057353" y="6758944.8642659" >
		</node>
		<node id="262111412" x="223361.53883010516" y="6758881.737247193" >
		</node>
		<node id="262111413" x="223473.97643192142" y="6758913.425007032" >
		</node>
		<node id="262111414" x="223564.80513719388" y="6758944.118593046" >
		</node>
		<node id="262111417" x="223597.5837768743" y="6758823.536944713" >
		</node>
		<node id="262111420" x="223593.08544091455" y="6758991.236403844" >
		</node>
		<node id="262111421" x="223547.07157492015" y="6758983.439516404" >
		</node>
		<node id="262111423" x="223629.6784423208" y="6758998.813795843" >
		</node>
		<node id="262111428" x="223607.66943993408" y="6759088.763270064" >
		</node>
		<node id="262111430" x="223668.4342893482" y="6758836.183279" >
		</node>
		<node id="262111435" x="223668.1196318554" y="6758822.052258065" >
		</node>
		<node id="262111439" x="223675.9654900048" y="6758822.499728915" >
		</node>
		<node id="262111443" x="223677.93927333446" y="6758833.721176475" >
		</node>
		<node id="262111466" x="223682.22835550277" y="6759091.1558223795" >
		</node>
		<node id="262111467" x="223713.45711260522" y="6758962.540564906" >
		</node>
		<node id="262111468" x="223748.99134254677" y="6758865.99281656" >
		</node>
		<node id="262111471" x="223783.46319493157" y="6759003.101036576" >
		</node>
		<node id="262111472" x="223838.88929994323" y="6758906.307351767" >
		</node>
		<node id="262111474" x="223714.8719231871" y="6758698.269536551" >
		</node>
		<node id="262111475" x="223944.96040992351" y="6758731.355342318" >
		</node>
		<node id="262111476" x="224362.46454309172" y="6758790.940655178" >
		</node>
		<node id="262111477" x="223805.22015361913" y="6758713.968731379" >
		</node>
		<node id="262111478" x="223915.8157426034" y="6758939.678204913" >
		</node>
		<node id="262111479" x="223784.46167172794" y="6758770.498386177" >
		</node>
		<node id="262111480" x="223936.2007408379" y="6758791.653084528" >
		</node>
		<node id="262111482" x="223766.61712183105" y="6758820.383427134" >
		</node>
		<node id="262111494" x="223927.64005144144" y="6758854.877557236" >
		</node>
		<node id="262111495" x="224096.59571670555" y="6758964.68961307" >
		</node>
		<node id="262111499" x="224118.17460254405" y="6758748.139297689" >
		</node>
		<node id="262111506" x="224103.8022236533" y="6758884.854646859" >
		</node>
		<node id="262111510" x="224197.1205873844" y="6758860.291919882" >
		</node>
		<node id="262111513" x="224267.5811619067" y="6758774.506674023" >
		</node>
		<node id="262111514" x="223938.10670114553" y="6758779.416125301" >
		</node>
		<node id="262111515" x="224110.48209242919" y="6758815.16118696" >
		</node>
		<node id="262111518" x="224281.72433774307" y="6758899.691367052" >
		</node>
		<node id="262111519" x="224233.66993103607" y="6758833.611538166" >
		</node>
		<node id="262410251" x="223301.61917369423" y="6757567.210437324" >
		</node>
		<node id="262410268" x="222816.0515260822" y="6757576.501784616" >
		</node>
		<node id="262410281" x="222509.96940349904" y="6758244.205077337" >
		</node>
		<node id="262410344" x="222685.822643187" y="6758412.266074589" >
		</node>
		<node id="262526869" x="222846.89138547092" y="6757913.082763606" >
		</node>
		<node id="262526897" x="223075.1700771941" y="6758467.934031445" >
		</node>
		<node id="262526905" x="223124.8331556819" y="6758338.315057771" >
		</node>
		<node id="262526907" x="223151.720987355" y="6758310.870976094" >
		</node>
		<node id="262526908" x="223165.64742521336" y="6758312.598509839" >
		</node>
		<node id="262526909" x="223196.57087534398" y="6758325.581189102" >
		</node>
		<node id="262526910" x="223096.88265905896" y="6758253.7079016715" >
		</node>
		<node id="262526912" x="223158.33848392923" y="6758248.515524024" >
		</node>
		<node id="262526913" x="223181.7777446105" y="6758180.363579775" >
		</node>
		<node id="262526918" x="222930.30485919787" y="6758016.833536403" >
		</node>
		<node id="262526919" x="222967.97042949294" y="6757985.161697056" >
		</node>
		<node id="262526920" x="222991.0244867368" y="6758108.743640141" >
		</node>
		<node id="262526921" x="223034.86546095076" y="6758076.8402313115" >
		</node>
		<node id="262526922" x="223049.95529737265" y="6758098.337120682" >
		</node>
		<node id="262526923" x="223006.3397018208" y="6758129.865500195" >
		</node>
		<node id="262526927" x="222863.8423061783" y="6758109.590522399" >
		</node>
		<node id="262526945" x="222763.82939250814" y="6757629.093271422" >
		</node>
		<node id="262539301" x="222904.6281479319" y="6757680.826735089" >
		</node>
		<node id="262539309" x="222950.9129244475" y="6757724.178212399" >
		</node>
		<node id="262539310" x="222898.41648395767" y="6757714.635966573" >
		</node>
		<node id="262539311" x="222842.54827269446" y="6757703.75066437" >
		</node>
		<node id="262539313" x="223062.08220196486" y="6757712.735070143" >
		</node>
		<node id="262539314" x="223063.52524804586" y="6757570.295898895" >
		</node>
		<node id="262539317" x="222937.50331812643" y="6757687.218717087" >
		</node>
		<node id="262539322" x="222975.9673893521" y="6757695.321327016" >
		</node>
		<node id="262539347" x="223211.70550388662" y="6758248.993819936" >
		</node>
		<node id="262539349" x="223313.02141444694" y="6758140.326182418" >
		</node>
		<node id="262539357" x="223421.06510690355" y="6757795.396087353" >
		</node>
		<node id="262539358" x="223317.49229206075" y="6757699.699962517" >
		</node>
		<node id="262539361" x="223446.70596964663" y="6757832.950960457" >
		</node>
		<node id="262539362" x="223319.1719589904" y="6758200.701765373" >
		</node>
		<node id="262539363" x="223415.65718423866" y="6758104.877547746" >
		</node>
		<node id="262539364" x="223380.4988791829" y="6758072.4280857295" >
		</node>
		<node id="262704444" x="222490.03609098576" y="6756987.713754143" >
		</node>
		<node id="262704463" x="222891.31247745018" y="6757154.179935821" >
		</node>
		<node id="262704486" x="222886.9978924726" y="6757142.668732459" >
		</node>
		<node id="262704491" x="222905.21783614135" y="6757149.75573619" >
		</node>
		<node id="262704510" x="222867.06777945202" y="6757219.287740515" >
		</node>
		<node id="262704555" x="222920.73356734926" y="6757380.621867203" >
		</node>
		<node id="262704558" x="222892.00323346496" y="6757253.720778231" >
		</node>
		<node id="262704559" x="222613.70444612647" y="6757391.942861737" >
		</node>
		<node id="262704562" x="222909.24354373262" y="6757334.589722034" >
		</node>
		<node id="262704578" x="222895.50418838707" y="6757421.553855799" >
		</node>
		<node id="262704580" x="223118.6950793335" y="6757568.911447434" >
		</node>
		<node id="262704582" x="223188.96142668213" y="6757567.154211492" >
		</node>
		<node id="262704583" x="222962.47154702496" y="6757493.785949488" >
		</node>
		<node id="262704584" x="223004.0773365791" y="6757455.007627864" >
		</node>
		<node id="262704586" x="223076.40831430716" y="6757299.958727079" >
		</node>
		<node id="262704587" x="223117.55826139124" y="6757314.56675308" >
		</node>
		<node id="262704589" x="223135.49255046854" y="6757499.190046148" >
		</node>
		<node id="262704590" x="223101.32759073318" y="6757221.878243824" >
		</node>
		<node id="262717777" x="223002.9214205558" y="6756813.770810147" >
		</node>
		<node id="262717779" x="222933.16911442572" y="6756880.66317336" >
		</node>
		<node id="262717781" x="222806.10322249593" y="6756962.091181346" >
		</node>
		<node id="262717792" x="222543.74904250616" y="6756956.735982565" >
		</node>
		<node id="262717867" x="222940.4012692594" y="6757034.606117516" >
		</node>
		<node id="262717868" x="222975.5312560583" y="6757049.778214345" >
		</node>
		<node id="262717870" x="223016.17832804687" y="6757047.171126707" >
		</node>
		<node id="262717871" x="223089.47503823222" y="6757036.038951868" >
		</node>
		<node id="262717885" x="223091.22310920688" y="6756968.103001896" >
		</node>
		<node id="262717886" x="222974.0426549273" y="6756992.41464465" >
		</node>
		<node id="262717887" x="222914.3980898313" y="6757100.112200267" >
		</node>
		<node id="262717890" x="223129.93739149556" y="6757173.161137084" >
		</node>
		<node id="262717892" x="223244.9962613344" y="6757176.1326963" >
		</node>
		<node id="262717894" x="222901.03181865177" y="6757137.230913633" >
		</node>
		<node id="262717895" x="223195.382291354" y="6757137.651628365" >
		</node>
		<node id="262717896" x="223174.27126405708" y="6757014.525657678" >
		</node>
		<node id="262717899" x="223189.75518282334" y="6757108.500712807" >
		</node>
		<node id="263742267" x="223806.2826751197" y="6758449.916391103" >
		</node>
		<node id="263742294" x="223826.56015159225" y="6758669.475338544" >
		</node>
		<node id="263742297" x="223897.07847894635" y="6758485.923904956" >
		</node>
		<node id="263742300" x="224016.07202954002" y="6758600.570811167" >
		</node>
		<node id="263742304" x="223868.17796475178" y="6758559.685637193" >
		</node>
		<node id="263742308" x="223773.73879233864" y="6758538.497083783" >
		</node>
		<node id="263742312" x="223979.2850555785" y="6758691.175928583" >
		</node>
		<node id="263742314" x="224036.0833331442" y="6758555.795469075" >
		</node>
		<node id="263742317" x="223905.4508956776" y="6758681.519946145" >
		</node>
		<node id="263742321" x="223918.97001000418" y="6758574.032741218" >
		</node>
		<node id="263742347" x="223727.14752036566" y="6758664.216708417" >
		</node>
		<node id="263742363" x="223845.51222141908" y="6758343.017128666" >
		</node>
		<node id="263742373" x="224001.59413175535" y="6758537.890929208" >
		</node>
		<node id="263742376" x="223967.92653944233" y="6758464.33148516" >
		</node>
		<node id="263742382" x="224337.7449524363" y="6758557.349233171" >
		</node>
		<node id="263742391" x="224122.70116128703" y="6758611.516437152" >
		</node>
		<node id="263742403" x="224231.62464103661" y="6758575.908554594" >
		</node>
		<node id="263742412" x="224188.66876856476" y="6758561.405866096" >
		</node>
		<node id="263742475" x="223960.21905817545" y="6758258.404800305" >
		</node>
		<node id="263742478" x="224058.32387725846" y="6758281.942516324" >
		</node>
		<node id="263742492" x="223901.30427972937" y="6758193.660908871" >
		</node>
		<node id="263742506" x="224045.5439107007" y="6757795.50675697" >
		</node>
		<node id="263742512" x="223932.1613919855" y="6758110.110967854" >
		</node>
		<node id="263742516" x="223997.03520665749" y="6758129.932269986" >
		</node>
		<node id="263742518" x="223961.6732485192" y="6758027.204924983" >
		</node>
		<node id="263742521" x="224026.88000769506" y="6758048.348482385" >
		</node>
		<node id="263742525" x="224093.64947023487" y="6758070.046566856" >
		</node>
		<node id="263742529" x="224109.3014403031" y="6758026.548754748" >
		</node>